data/open_dss/uhs15_1247/uhs15_1247--udt20824/Loads_original.dss
New Load.load_p1ulv4378 conn=wye bus1=p1ulv4378.1.2 kV=0.2080002494301389 Vminpu=0.8 Vmaxpu=1.2 model=1 kW=15.2202 kvar=3.0905934265816724 Phases=2

New Load.load_p1ulv5237 conn=wye bus1=p1ulv5237.1.2.3 kV=0.48 Vminpu=0.8 Vmaxpu=1.2 model=1 kW=58.77060000000001 kvar=11.933879320656812 Phases=3

New Load.load_p1ulv5238 conn=wye bus1=p1ulv5238.1.2.3 kV=0.48 Vminpu=0.8 Vmaxpu=1.2 model=1 kW=58.64059999999999 kvar=11.90748169477439 Phases=3

New Load.load_p1ulv5239 conn=wye bus1=p1ulv5239.1.2.3 kV=0.48 Vminpu=0.8 Vmaxpu=1.2 model=1 kW=45.5905 kvar=9.257545867634573 Phases=3

New Load.load_p1ulv5240 conn=wye bus1=p1ulv5240.1.2.3 kV=0.48 Vminpu=0.8 Vmaxpu=1.2 model=1 kW=43.440400000000004 kvar=8.820949441405398 Phases=3

New Load.load_p1ulv5241 conn=wye bus1=p1ulv5241.1.2.3 kV=0.48 Vminpu=0.8 Vmaxpu=1.2 model=1 kW=64.8606 kvar=13.170506563917899 Phases=3

New Load.load_p1ulv5724 conn=wye bus1=p1ulv5724.1.2 kV=0.2080002494301389 Vminpu=0.8 Vmaxpu=1.2 model=1 kW=13.7801 kvar=2.7981686494026423 Phases=2

New Load.load_p1ulv5725 conn=wye bus1=p1ulv5725.1.2 kV=0.2080002494301389 Vminpu=0.8 Vmaxpu=1.2 model=1 kW=16.4502 kvar=3.3403555791614967 Phases=2

New Load.load_p1ulv5726 conn=wye bus1=p1ulv5725.1.2 kV=0.2080002494301389 Vminpu=0.8 Vmaxpu=1.2 model=1 kW=17.0402 kvar=3.4601601889355593 Phases=2

New Load.load_p1ulv5727 conn=wye bus1=p1ulv5727.1.2 kV=0.2080002494301389 Vminpu=0.8 Vmaxpu=1.2 model=1 kW=15.7202 kvar=3.1921227568986743 Phases=2

New Load.load_p1ulv5728 conn=wye bus1=p1ulv5727.1.2 kV=0.2080002494301389 Vminpu=0.8 Vmaxpu=1.2 model=1 kW=16.6202 kvar=3.383562043575448 Phases=2

New Load.load_p1ulv5729 conn=wye bus1=p1ulv5729.1.2 kV=0.2080002494301389 Vminpu=0.8 Vmaxpu=1.2 model=1 kW=15.9602 kvar=3.240856835450835 Phases=2

New Load.load_p1ulv5730 conn=wye bus1=p1ulv5730.1.2 kV=0.2080002494301389 Vminpu=0.8 Vmaxpu=1.2 model=1 kW=18.6902 kvar=3.78541640224595 Phases=2

New Load.load_p1ulv5731 conn=wye bus1=p1ulv5731.1.2 kV=0.2080002494301389 Vminpu=0.8 Vmaxpu=1.2 model=1 kW=15.3602 kvar=3.1190216390704326 Phases=2

New Load.load_p1ulv5732 conn=wye bus1=p1ulv5732.1.2 kV=0.2080002494301389 Vminpu=0.8 Vmaxpu=1.2 model=1 kW=17.5402 kvar=3.5616895192525613 Phases=2

New Load.load_p1ulv5733 conn=wye bus1=p1ulv5733.1.2 kV=0.2080002494301389 Vminpu=0.8 Vmaxpu=1.2 model=1 kW=12.8501 kvar=2.609324095013018 Phases=2

New Load.load_p1ulv5734 conn=wye bus1=p1ulv5733.1.2 kV=0.2080002494301389 Vminpu=0.8 Vmaxpu=1.2 model=1 kW=14.090100000000001 kvar=2.8611168341991844 Phases=2

New Load.load_p1ulv5735 conn=wye bus1=p1ulv5735.1.2 kV=0.2080002494301389 Vminpu=0.8 Vmaxpu=1.2 model=1 kW=11.8301 kvar=2.402204261166334 Phases=2

New Load.load_p1ulv5736 conn=wye bus1=p1ulv5736.1.2 kV=0.2080002494301389 Vminpu=0.8 Vmaxpu=1.2 model=1 kW=12.4001 kvar=2.5179476977277164 Phases=2

New Load.load_p1ulv5737 conn=wye bus1=p1ulv5737.1.2 kV=0.2080002494301389 Vminpu=0.8 Vmaxpu=1.2 model=1 kW=11.8001 kvar=2.402279784262202 Phases=2

New Load.load_p1ulv5738 conn=wye bus1=p1ulv5738.1.2 kV=0.2080002494301389 Vminpu=0.8 Vmaxpu=1.2 model=1 kW=11.3701 kvar=2.3087972772746923 Phases=2

New Load.load_p1ulv5739 conn=wye bus1=p1ulv5739.1.2 kV=0.2080002494301389 Vminpu=0.8 Vmaxpu=1.2 model=1 kW=2.74003 kvar=0.5606733585797765 Phases=2

New Load.load_p1ulv5740 conn=wye bus1=p1ulv5740.1.2 kV=0.2080002494301389 Vminpu=0.8 Vmaxpu=1.2 model=1 kW=1.93002 kvar=0.38988294196352385 Phases=2

New Load.load_p1ulv5741 conn=wye bus1=p1ulv5741.1.2 kV=0.2080002494301389 Vminpu=0.8 Vmaxpu=1.2 model=1 kW=2.7800300000000004 kvar=0.5703014980185626 Phases=2

New Load.load_p1ulv5806 conn=wye bus1=p1ulv5806.1.2 kV=0.2080002494301389 Vminpu=0.8 Vmaxpu=1.2 model=1 kW=18.3002 kvar=3.7160141013344057 Phases=2

New Load.load_p1ulv5807 conn=wye bus1=p1ulv5807.1.2 kV=0.2080002494301389 Vminpu=0.8 Vmaxpu=1.2 model=1 kW=4.86005 kvar=0.9894153325398525 Phases=2

New Load.load_p1ulv5808 conn=wye bus1=p1ulv5808.1.2 kV=0.2080002494301389 Vminpu=0.8 Vmaxpu=1.2 model=1 kW=1.56002 kvar=0.32002595041741205 Phases=2

New Load.load_p1ulv5809 conn=wye bus1=p1ulv5809.1.2 kV=0.2080002494301389 Vminpu=0.8 Vmaxpu=1.2 model=1 kW=3.43003 kvar=0.70007864149034 Phases=2

New Load.load_p1ulv7629 conn=wye bus1=p1ulv7629.1.2.3 kV=0.48 Vminpu=0.8 Vmaxpu=1.2 model=1 kW=126.761 kvar=25.73991888062702 Phases=3

New Load.load_p1ulv7630 conn=wye bus1=p1ulv7630.1.2 kV=0.2080002494301389 Vminpu=0.8 Vmaxpu=1.2 model=1 kW=2.7600300000000004 kvar=0.5604479951096709 Phases=2

New Load.load_p1ulv7631 conn=wye bus1=p1ulv7631.1.2 kV=0.2080002494301389 Vminpu=0.8 Vmaxpu=1.2 model=1 kW=4.86005 kvar=0.9894153325398525 Phases=2

New Load.load_p1ulv7632 conn=wye bus1=p1ulv7632.1.2.3 kV=0.48 Vminpu=0.8 Vmaxpu=1.2 model=1 kW=22.8702 kvar=4.643992180431805 Phases=3

New Load.load_p1ulv7636 conn=wye bus1=p1ulv7636.1.2 kV=0.2080002494301389 Vminpu=0.8 Vmaxpu=1.2 model=1 kW=4.14004 kvar=1.3592956687066866 Phases=2

New Load.load_p1ulv7637 conn=wye bus1=p1ulv7637.1.2.3 kV=0.48 Vminpu=0.8 Vmaxpu=1.2 model=1 kW=26.160300000000003 kvar=5.312075479783743 Phases=3

New Load.load_p1ulv7638 conn=wye bus1=p1ulv7638.1.2.3 kV=0.48 Vminpu=0.8 Vmaxpu=1.2 model=1 kW=40.57039999999999 kvar=8.238171085385806 Phases=3

New Load.load_p1ulv7639 conn=wye bus1=p1ulv7639.1.2.3 kV=0.48 Vminpu=0.8 Vmaxpu=1.2 model=1 kW=33.7603 kvar=6.855321300602176 Phases=3

New Load.load_p1ulv7640 conn=wye bus1=p1ulv7640.1.2.3 kV=0.48 Vminpu=0.8 Vmaxpu=1.2 model=1 kW=39.0404 kvar=7.92749133461578 Phases=3

New Load.load_p1ulv7641 conn=wye bus1=p1ulv7641.1.2.3 kV=0.48 Vminpu=0.8 Vmaxpu=1.2 model=1 kW=24.1202 kvar=4.897815506224311 Phases=3

New Load.load_p1ulv7642 conn=wye bus1=p1ulv7642.1.2.3 kV=0.48 Vminpu=0.8 Vmaxpu=1.2 model=1 kW=51.9705 kvar=10.553060122479522 Phases=3

New Load.load_p1ulv7643 conn=wye bus1=p1ulv7643.1.2.3 kV=0.48 Vminpu=0.8 Vmaxpu=1.2 model=1 kW=27.9203 kvar=5.6694587224995905 Phases=3

New Load.load_p1ulv7644 conn=wye bus1=p1ulv7644.1.2.3 kV=0.48 Vminpu=0.8 Vmaxpu=1.2 model=1 kW=28.5503 kvar=5.797385678699013 Phases=3

New Load.load_p1ulv7645 conn=wye bus1=p1ulv7645.1.2.3 kV=0.48 Vminpu=0.8 Vmaxpu=1.2 model=1 kW=35.3704 kvar=7.182266050088985 Phases=3

New Load.load_p1ulv7646 conn=wye bus1=p1ulv7646.1.2.3 kV=0.48 Vminpu=0.8 Vmaxpu=1.2 model=1 kW=24.8302 kvar=5.0419871552744535 Phases=3

New Load.load_p1ulv7647 conn=wye bus1=p1ulv7647.1.2.3 kV=0.48 Vminpu=0.8 Vmaxpu=1.2 model=1 kW=36.0904 kvar=7.328468285745468 Phases=3

New Load.load_p1ulv7648 conn=wye bus1=p1ulv7648.1.2 kV=0.2080002494301389 Vminpu=0.8 Vmaxpu=1.2 model=1 kW=7.94008 kvar=1.608142720096362 Phases=2

New Load.load_p1ulv7649 conn=wye bus1=p1ulv7649.1.2 kV=0.2080002494301389 Vminpu=0.8 Vmaxpu=1.2 model=1 kW=4.00004 kvar=0.8101474048239126 Phases=2

New Load.load_p1ulv7650 conn=wye bus1=p1ulv7650.1.2 kV=0.2080002494301389 Vminpu=0.8 Vmaxpu=1.2 model=1 kW=3.31003 kvar=0.6703963496338274 Phases=2

New Load.load_p1ulv7651 conn=wye bus1=p1ulv7651.1.2 kV=0.2080002494301389 Vminpu=0.8 Vmaxpu=1.2 model=1 kW=2.94003 kvar=0.6000682817178988 Phases=2

New Load.load_p1ulv7652 conn=wye bus1=p1ulv7652.1.2.3 kV=0.48 Vminpu=0.8 Vmaxpu=1.2 model=1 kW=40.48040000000001 kvar=8.219895805928749 Phases=3

New Load.load_p1ulv7653 conn=wye bus1=p1ulv7653.1.2 kV=0.2080002494301389 Vminpu=0.8 Vmaxpu=1.2 model=1 kW=4.02004 kvar=0.8205013197951115 Phases=2

New Load.load_p1ulv7654 conn=wye bus1=p1ulv7654.1.2 kV=0.2080002494301389 Vminpu=0.8 Vmaxpu=1.2 model=1 kW=2.34002 kvar=0.48003687420401825 Phases=2

New Load.load_p1ulv7655 conn=wye bus1=p1ulv7655.1.2 kV=0.2080002494301389 Vminpu=0.8 Vmaxpu=1.2 model=1 kW=1.38001 kvar=0.28022298226153225 Phases=2

New Load.load_p1ulv7656 conn=wye bus1=p1ulv7656.1.2 kV=0.2080002494301389 Vminpu=0.8 Vmaxpu=1.2 model=1 kW=6.44006 kvar=1.3110758338857833 Phases=2

New Load.load_p1ulv7657 conn=wye bus1=p1ulv7657.1.2 kV=0.2080002494301389 Vminpu=0.8 Vmaxpu=1.2 model=1 kW=1.52002 kvar=0.31024030012511455 Phases=2

New Load.load_p1ulv7658 conn=wye bus1=p1ulv7658.1.2 kV=0.2080002494301389 Vminpu=0.8 Vmaxpu=1.2 model=1 kW=1.75002 kvar=0.3498246235335853 Phases=2

New Load.load_p1ulv7659 conn=wye bus1=p1ulv7659.1.2 kV=0.2080002494301389 Vminpu=0.8 Vmaxpu=1.2 model=1 kW=5.69006 kvar=1.1613570361770957 Phases=2

New Load.load_p1ulv7660 conn=wye bus1=p1ulv7660.1.2 kV=0.2080002494301389 Vminpu=0.8 Vmaxpu=1.2 model=1 kW=3.56004 kvar=0.7191629458284491 Phases=2

New Load.load_p1ulv7661 conn=wye bus1=p1ulv7661.1.2 kV=0.2080002494301389 Vminpu=0.8 Vmaxpu=1.2 model=1 kW=3.95004 kvar=0.8000206635310265 Phases=2

New Load.load_p1ulv7662 conn=wye bus1=p1ulv7662.1.2.3 kV=0.48 Vminpu=0.8 Vmaxpu=1.2 model=1 kW=32.4003 kvar=6.5791615221399296 Phases=3

New Load.load_p1ulv7663 conn=wye bus1=p1ulv7663.1.2 kV=0.2080002494301389 Vminpu=0.8 Vmaxpu=1.2 model=1 kW=4.03004 kvar=0.8204408116683792 Phases=2

New Load.load_p1ulv7664 conn=wye bus1=p1ulv7664.1.2 kV=0.2080002494301389 Vminpu=0.8 Vmaxpu=1.2 model=1 kW=3.97004 kvar=0.8102961810428216 Phases=2

New Load.load_p1ulv7665 conn=wye bus1=p1ulv7665.1.2 kV=0.2080002494301389 Vminpu=0.8 Vmaxpu=1.2 model=1 kW=4.53005 kvar=0.9198658856050712 Phases=2

New Load.load_p1ulv7666 conn=wye bus1=p1ulv7666.1.2 kV=0.2080002494301389 Vminpu=0.8 Vmaxpu=1.2 model=1 kW=2.98003 kvar=0.6097828960881785 Phases=2

New Load.load_p1ulv7667 conn=wye bus1=p1ulv7667.1.2 kV=0.2080002494301389 Vminpu=0.8 Vmaxpu=1.2 model=1 kW=4.87005 kvar=0.9889058302206326 Phases=2

New Load.load_p1ulv7668 conn=wye bus1=p1ulv7668.1.2 kV=0.2080002494301389 Vminpu=0.8 Vmaxpu=1.2 model=1 kW=4.22004 kvar=0.8591212600552419 Phases=2

New Load.load_p1ulv7669 conn=wye bus1=p1ulv7669.1.2 kV=0.2080002494301389 Vminpu=0.8 Vmaxpu=1.2 model=1 kW=4.26004 kvar=0.8605698013918458 Phases=2

New Load.load_p1ulv7670 conn=wye bus1=p1ulv7670.1.2 kV=0.2080002494301389 Vminpu=0.8 Vmaxpu=1.2 model=1 kW=4.56005 kvar=0.9307188593475932 Phases=2

New Load.load_p1ulv7671 conn=wye bus1=p1ulv7671.1.2 kV=0.2080002494301389 Vminpu=0.8 Vmaxpu=1.2 model=1 kW=5.31005 kvar=1.0810269208245273 Phases=2

New Load.load_p1ulv7673 conn=wye bus1=p1ulv7673.1.2 kV=0.2080002494301389 Vminpu=0.8 Vmaxpu=1.2 model=1 kW=4.80005 kvar=0.9696571100672596 Phases=2

New Load.load_p1ulv7674 conn=wye bus1=p1ulv7674.1.2 kV=0.2080002494301389 Vminpu=0.8 Vmaxpu=1.2 model=1 kW=4.39004 kvar=0.8891359869084231 Phases=2

New Load.load_p1ulv7675 conn=wye bus1=p1ulv7675.1.2 kV=0.2080002494301389 Vminpu=0.8 Vmaxpu=1.2 model=1 kW=4.85005 kvar=0.9899086641108747 Phases=2

New Load.load_p1ulv7676 conn=wye bus1=p1ulv7676.1.2 kV=0.2080002494301389 Vminpu=0.8 Vmaxpu=1.2 model=1 kW=4.60005 kvar=0.9292551513348608 Phases=2

New Load.load_p1ulv7677 conn=wye bus1=p1ulv7677.1.2.3 kV=0.48 Vminpu=0.8 Vmaxpu=1.2 model=1 kW=30.9203 kvar=6.278634704401603 Phases=3

New Load.load_p1ulv7678 conn=wye bus1=p1ulv7678.1.2.3 kV=0.48 Vminpu=0.8 Vmaxpu=1.2 model=1 kW=30.630299999999995 kvar=6.21974769281774 Phases=3

New Load.load_p1ulv7679 conn=wye bus1=p1ulv7679.1.2.3 kV=0.48 Vminpu=0.8 Vmaxpu=1.2 model=1 kW=30.520300000000002 kvar=6.197411240148002 Phases=3

New Load.load_p1ulv7681 conn=wye bus1=p1ulv7681.1.2.3 kV=0.48 Vminpu=0.8 Vmaxpu=1.2 model=1 kW=28.380299999999995 kvar=5.762865706391231 Phases=3

New Load.load_p1ulv7682 conn=wye bus1=p1ulv7682.1.2.3 kV=0.48 Vminpu=0.8 Vmaxpu=1.2 model=1 kW=29.290300000000002 kvar=5.947649087568177 Phases=3

New Load.load_p1ulv7691 conn=wye bus1=p1ulv7691.1.2.3 kV=0.48 Vminpu=0.8 Vmaxpu=1.2 model=1 kW=39.2904 kvar=7.978255999774281 Phases=3

New Load.load_p1ulv7692 conn=wye bus1=p1ulv7692.1.2.3 kV=0.48 Vminpu=0.8 Vmaxpu=1.2 model=1 kW=52.97050000000001 kvar=10.756118783113525 Phases=3

New Load.load_p1ulv7693 conn=wye bus1=p1ulv7693.1.2.3 kV=0.48 Vminpu=0.8 Vmaxpu=1.2 model=1 kW=60.4006 kvar=12.26486493749024 Phases=3

New Load.load_p1ulv7694 conn=wye bus1=p1ulv7694.1.2.3 kV=0.48 Vminpu=0.8 Vmaxpu=1.2 model=1 kW=143.961 kvar=29.23252784353189 Phases=3

New Load.load_p1ulv9089 conn=wye bus1=p1ulv9089.1.2.3 kV=0.48 Vminpu=0.8 Vmaxpu=1.2 model=1 kW=44.3604 kvar=9.007763409188684 Phases=3

New Load.load_p1ulv9090 conn=wye bus1=p1ulv9090.1.2.3 kV=0.48 Vminpu=0.8 Vmaxpu=1.2 model=1 kW=198.052 kvar=40.21617385588581 Phases=3

New Load.load_p1ulv9091 conn=wye bus1=p1ulv9091.1.2.3 kV=0.48 Vminpu=0.8 Vmaxpu=1.2 model=1 kW=28.0703 kvar=5.699917521594691 Phases=3

New Load.load_p1ulv9092 conn=wye bus1=p1ulv9092.1.2.3 kV=0.48 Vminpu=0.8 Vmaxpu=1.2 model=1 kW=42.5404 kvar=8.638196646834794 Phases=3

New Load.load_p1ulv9093 conn=wye bus1=p1ulv9093.1.2.3 kV=0.48 Vminpu=0.8 Vmaxpu=1.2 model=1 kW=31.4003 kvar=6.376102861505924 Phases=3

New Load.load_p1ulv9511 conn=wye bus1=p1ulv9511.1.2.3 kV=0.48 Vminpu=0.8 Vmaxpu=1.2 model=1 kW=36.7504 kvar=7.462487001763911 Phases=3

New Load.load_p1ulv9512 conn=wye bus1=p1ulv9512.1.2.3 kV=0.48 Vminpu=0.8 Vmaxpu=1.2 model=1 kW=51.4505 kvar=10.447469618949839 Phases=3

New Load.load_p1ulv9513 conn=wye bus1=p1ulv9513.1.2.3 kV=0.48 Vminpu=0.8 Vmaxpu=1.2 model=1 kW=43.4904 kvar=8.831102374437101 Phases=3

New Load.load_p1ulv9514 conn=wye bus1=p1ulv9514.1.2 kV=0.2080002494301389 Vminpu=0.8 Vmaxpu=1.2 model=1 kW=17.8502 kvar=3.633967051553559 Phases=2

New Load.load_p1ulv12557 conn=wye bus1=p1ulv12557.1.2.3 kV=0.48 Vminpu=0.8 Vmaxpu=1.2 model=1 kW=21.330200000000005 kvar=4.3312818430554385 Phases=3

New Load.load_p1ulv12558 conn=wye bus1=p1ulv12558.1.2.3 kV=0.48 Vminpu=0.8 Vmaxpu=1.2 model=1 kW=46.1905 kvar=9.379381064014975 Phases=3

New Load.load_p1ulv12559 conn=wye bus1=p1ulv12559.1.2.3 kV=0.48 Vminpu=0.8 Vmaxpu=1.2 model=1 kW=36.220400000000005 kvar=7.354865911627889 Phases=3

New Load.load_p1ulv12560 conn=wye bus1=p1ulv12560.1.2 kV=0.2080002494301389 Vminpu=0.8 Vmaxpu=1.2 model=1 kW=2.54003 kvar=0.5197487439894416 Phases=2

New Load.load_p1ulv12561 conn=wye bus1=p1ulv12560.1.2 kV=0.2080002494301389 Vminpu=0.8 Vmaxpu=1.2 model=1 kW=2.60003 kvar=0.5306733382023273 Phases=2

New Load.load_p1ulv12562 conn=wye bus1=p1ulv12562.1.2 kV=0.2080002494301389 Vminpu=0.8 Vmaxpu=1.2 model=1 kW=2.1000200000000007 kvar=0.4297125456599755 Phases=2

New Load.load_p1ulv12563 conn=wye bus1=p1ulv12563.1.2 kV=0.2080002494301389 Vminpu=0.8 Vmaxpu=1.2 model=1 kW=3.09003 kvar=0.6306836979747686 Phases=2

New Load.load_p1ulv12564 conn=wye bus1=p1ulv12564.1.2 kV=0.2080002494301389 Vminpu=0.8 Vmaxpu=1.2 model=1 kW=1.92002 kvar=0.38987668959050087 Phases=2

New Load.load_p1ulv12565 conn=wye bus1=p1ulv12565.1.2 kV=0.2080002494301389 Vminpu=0.8 Vmaxpu=1.2 model=1 kW=2.96003 kvar=0.5995091605836256 Phases=2

New Load.load_p1ulv12566 conn=wye bus1=p1ulv12566.1.2 kV=0.2080002494301389 Vminpu=0.8 Vmaxpu=1.2 model=1 kW=2.41002 kvar=0.489375433301163 Phases=2

New Load.load_p1ulv12567 conn=wye bus1=p1ulv12567.1.2 kV=0.2080002494301389 Vminpu=0.8 Vmaxpu=1.2 model=1 kW=2.86003 kvar=0.5807538611730713 Phases=2

New Load.load_p1ulv12568 conn=wye bus1=p1ulv12568.1.2 kV=0.2080002494301389 Vminpu=0.8 Vmaxpu=1.2 model=1 kW=2.74003 kvar=0.5606733585797765 Phases=2

New Load.load_p1ulv12569 conn=wye bus1=p1ulv12569.1.2 kV=0.2080002494301389 Vminpu=0.8 Vmaxpu=1.2 model=1 kW=2.27002 kvar=0.4597581053935405 Phases=2

New Load.load_p1ulv12570 conn=wye bus1=p1ulv12570.1.2 kV=0.2080002494301389 Vminpu=0.8 Vmaxpu=1.2 model=1 kW=1.93002 kvar=0.38988294196352385 Phases=2

New Load.load_p1ulv12571 conn=wye bus1=p1ulv12571.1.2 kV=0.2080002494301389 Vminpu=0.8 Vmaxpu=1.2 model=1 kW=2.27002 kvar=0.4597581053935405 Phases=2

New Load.load_p1ulv12572 conn=wye bus1=p1ulv12572.1.2 kV=0.2080002494301389 Vminpu=0.8 Vmaxpu=1.2 model=1 kW=1.76002 kvar=0.3601407008564061 Phases=2

New Load.load_p1ulv12573 conn=wye bus1=p1ulv12573.1.2 kV=0.2080002494301389 Vminpu=0.8 Vmaxpu=1.2 model=1 kW=2.33002 kvar=0.469460711936096 Phases=2

New Load.load_p1ulv12574 conn=wye bus1=p1ulv12574.1.2 kV=0.2080002494301389 Vminpu=0.8 Vmaxpu=1.2 model=1 kW=1.96002 kvar=0.40004552114526587 Phases=2

New Load.load_p1ulv12575 conn=wye bus1=p1ulv12575.1.2 kV=0.2080002494301389 Vminpu=0.8 Vmaxpu=1.2 model=1 kW=2.49002 kvar=0.5003847060932721 Phases=2

New Load.load_p1ulv12576 conn=wye bus1=p1ulv12576.1.2 kV=0.2080002494301389 Vminpu=0.8 Vmaxpu=1.2 model=1 kW=2.13002 kvar=0.4302849006959229 Phases=2

New Load.load_p1ulv12577 conn=wye bus1=p1ulv12577.1.2 kV=0.2080002494301389 Vminpu=0.8 Vmaxpu=1.2 model=1 kW=2.45002 kvar=0.500055880917707 Phases=2

New Load.load_p1ulv12578 conn=wye bus1=p1ulv12578.1.2 kV=0.2080002494301389 Vminpu=0.8 Vmaxpu=1.2 model=1 kW=2.62003 kvar=0.5306473197920009 Phases=2

New Load.load_p1ulv12579 conn=wye bus1=p1ulv12579.1.2 kV=0.2080002494301389 Vminpu=0.8 Vmaxpu=1.2 model=1 kW=2.88003 kvar=0.5802786818127376 Phases=2

New Load.load_p1ulv12580 conn=wye bus1=p1ulv12580.1.2 kV=0.2080002494301389 Vminpu=0.8 Vmaxpu=1.2 model=1 kW=2.5100300000000004 kvar=0.5096833299511698 Phases=2

New Load.load_p1ulv12581 conn=wye bus1=p1ulv12581.1.2 kV=0.2080002494301389 Vminpu=0.8 Vmaxpu=1.2 model=1 kW=3.87004 kvar=0.7898859035382418 Phases=2

New Load.load_p1ulv12582 conn=wye bus1=p1ulv12582.1.2 kV=0.2080002494301389 Vminpu=0.8 Vmaxpu=1.2 model=1 kW=3.45003 kvar=0.7005584709471337 Phases=2

New Load.load_p1ulv12583 conn=wye bus1=p1ulv12583.1.2 kV=0.2080002494301389 Vminpu=0.8 Vmaxpu=1.2 model=1 kW=4.11004 kvar=0.8302683323425464 Phases=2

New Load.load_p1ulv12584 conn=wye bus1=p1ulv12584.1.2 kV=0.2080002494301389 Vminpu=0.8 Vmaxpu=1.2 model=1 kW=2.59003 kvar=0.5299798976370255 Phases=2

New Load.load_p1ulv12585 conn=wye bus1=p1ulv12585.1.2 kV=0.2080002494301389 Vminpu=0.8 Vmaxpu=1.2 model=1 kW=2.3500200000000007 kvar=0.47964560341312734 Phases=2

New Load.load_p1ulv12586 conn=wye bus1=p1ulv12586.1.2 kV=0.2080002494301389 Vminpu=0.8 Vmaxpu=1.2 model=1 kW=2.15002 kvar=0.43994369930755917 Phases=2

New Load.load_p1ulv12587 conn=wye bus1=p1ulv12587.1.2 kV=0.2080002494301389 Vminpu=0.8 Vmaxpu=1.2 model=1 kW=2.14002 kvar=0.4300500713784323 Phases=2

New Load.load_p1ulv12588 conn=wye bus1=p1ulv12588.1.2 kV=0.2080002494301389 Vminpu=0.8 Vmaxpu=1.2 model=1 kW=2.66003 kvar=0.5401421290462703 Phases=2

New Load.load_p1ulv12589 conn=wye bus1=p1ulv12589.1.2 kV=0.2080002494301389 Vminpu=0.8 Vmaxpu=1.2 model=1 kW=2.48002 kvar=0.499683245129122 Phases=2

New Load.load_p1ulv12590 conn=wye bus1=p1ulv12590.1.2 kV=0.2080002494301389 Vminpu=0.8 Vmaxpu=1.2 model=1 kW=2.74003 kvar=0.5606733585797765 Phases=2

New Load.load_p1ulv12591 conn=wye bus1=p1ulv12591.1.2 kV=0.2080002494301389 Vminpu=0.8 Vmaxpu=1.2 model=1 kW=2.7800300000000004 kvar=0.5601303263507202 Phases=2

New Load.load_p1ulv12592 conn=wye bus1=p1ulv12592.1.2 kV=0.2080002494301389 Vminpu=0.8 Vmaxpu=1.2 model=1 kW=2.05002 kvar=0.4194813920123917 Phases=2

New Load.load_p1ulv12593 conn=wye bus1=p1ulv12593.1.2 kV=0.2080002494301389 Vminpu=0.8 Vmaxpu=1.2 model=1 kW=2.66003 kvar=0.5401421290462703 Phases=2

New Load.load_p1ulv12594 conn=wye bus1=p1ulv12594.1.2 kV=0.2080002494301389 Vminpu=0.8 Vmaxpu=1.2 model=1 kW=2.40002 kvar=0.4898507421654172 Phases=2

New Load.load_p1ulv12595 conn=wye bus1=p1ulv12595.1.2 kV=0.2080002494301389 Vminpu=0.8 Vmaxpu=1.2 model=1 kW=3.58004 kvar=0.7306960987749602 Phases=2

New Load.load_p1ulv12596 conn=wye bus1=p1ulv12596.1.2 kV=0.2080002494301389 Vminpu=0.8 Vmaxpu=1.2 model=1 kW=2.64003 kvar=0.5402110512846091 Phases=2

New Load.load_p1ulv12597 conn=wye bus1=p1ulv12597.1.2 kV=0.2080002494301389 Vminpu=0.8 Vmaxpu=1.2 model=1 kW=2.8000300000000005 kvar=0.5700337678771953 Phases=2

New Load.load_p1ulv12598 conn=wye bus1=p1ulv12598.1.2 kV=0.2080002494301389 Vminpu=0.8 Vmaxpu=1.2 model=1 kW=2.5500300000000005 kvar=0.5204681994500374 Phases=2

New Load.load_p1ulv12599 conn=wye bus1=p1ulv12599.1.2 kV=0.2080002494301389 Vminpu=0.8 Vmaxpu=1.2 model=1 kW=2.89003 kvar=0.5898631429656088 Phases=2

New Load.load_p1ulv12600 conn=wye bus1=p1ulv12600.1.2 kV=0.2080002494301389 Vminpu=0.8 Vmaxpu=1.2 model=1 kW=2.58003 kvar=0.5198336154266855 Phases=2

New Load.load_p1ulv12601 conn=wye bus1=p1ulv12601.1.2 kV=0.2080002494301389 Vminpu=0.8 Vmaxpu=1.2 model=1 kW=2.86003 kvar=0.5807538611730713 Phases=2

New Load.load_p1ulv12602 conn=wye bus1=p1ulv12602.1.2 kV=0.2080002494301389 Vminpu=0.8 Vmaxpu=1.2 model=1 kW=2.98003 kvar=0.6097828960881785 Phases=2

New Load.load_p1ulv12603 conn=wye bus1=p1ulv12603.1.2 kV=0.2080002494301389 Vminpu=0.8 Vmaxpu=1.2 model=1 kW=2.93003 kvar=0.5995517424405946 Phases=2

New Load.load_p1ulv12604 conn=wye bus1=p1ulv12604.1.2.3 kV=0.48 Vminpu=0.8 Vmaxpu=1.2 model=1 kW=29.0003 kvar=5.888762075984314 Phases=3

New Load.load_p1ulv12605 conn=wye bus1=p1ulv12605.1.2 kV=0.2080002494301389 Vminpu=0.8 Vmaxpu=1.2 model=1 kW=4.47004 kvar=0.9100165868800613 Phases=2

New Load.load_p1ulv12606 conn=wye bus1=p1ulv12606.1.2 kV=0.2080002494301389 Vminpu=0.8 Vmaxpu=1.2 model=1 kW=4.02004 kvar=0.8205013197951115 Phases=2

New Load.load_p1ulv12607 conn=wye bus1=p1ulv12607.1.2 kV=0.2080002494301389 Vminpu=0.8 Vmaxpu=1.2 model=1 kW=4.97005 kvar=1.009211696284033 Phases=2

New Load.load_p1ulv12608 conn=wye bus1=p1ulv12608.1.2 kV=0.2080002494301389 Vminpu=0.8 Vmaxpu=1.2 model=1 kW=4.19004 kvar=0.8508239104029033 Phases=2

New Load.load_p1ulv12609 conn=wye bus1=p1ulv12609.1.2 kV=0.2080002494301389 Vminpu=0.8 Vmaxpu=1.2 model=1 kW=3.82004 kvar=0.7696752379912465 Phases=2

New Load.load_p1ulv12610 conn=wye bus1=p1ulv12610.1.2 kV=0.2080002494301389 Vminpu=0.8 Vmaxpu=1.2 model=1 kW=4.42004 kvar=0.8998375215150975 Phases=2

New Load.load_p1ulv12611 conn=wye bus1=p1ulv12611.1.2 kV=0.2080002494301389 Vminpu=0.8 Vmaxpu=1.2 model=1 kW=3.7100400000000002 kvar=0.7494644148777485 Phases=2

New Load.load_p1ulv12612 conn=wye bus1=p1ulv12612.1.2 kV=0.2080002494301389 Vminpu=0.8 Vmaxpu=1.2 model=1 kW=3.9800400000000002 kvar=0.8102617463034154 Phases=2

New Load.load_p1ulv12613 conn=wye bus1=p1ulv12613.1.2 kV=0.2080002494301389 Vminpu=0.8 Vmaxpu=1.2 model=1 kW=4.26004 kvar=0.8694859858061031 Phases=2

New Load.load_p1ulv12614 conn=wye bus1=p1ulv12614.1.2 kV=0.2080002494301389 Vminpu=0.8 Vmaxpu=1.2 model=1 kW=4.28004 kvar=0.8690991898599637 Phases=2

New Load.load_p1ulv12615 conn=wye bus1=p1ulv12615.1.2 kV=0.2080002494301389 Vminpu=0.8 Vmaxpu=1.2 model=1 kW=3.59004 kvar=0.7308650364566972 Phases=2

New Load.load_p1ulv12616 conn=wye bus1=p1ulv12616.1.2 kV=0.2080002494301389 Vminpu=0.8 Vmaxpu=1.2 model=1 kW=4.09004 kvar=0.8305180443395029 Phases=2

New Load.load_p1ulv12617 conn=wye bus1=p1ulv12617.1.2 kV=0.2080002494301389 Vminpu=0.8 Vmaxpu=1.2 model=1 kW=4.60005 kvar=0.9292551513348608 Phases=2

New Load.load_p1ulv12618 conn=wye bus1=p1ulv12618.1.2 kV=0.2080002494301389 Vminpu=0.8 Vmaxpu=1.2 model=1 kW=3.00003 kvar=0.6107500293370508 Phases=2

New Load.load_p1ulv12619 conn=wye bus1=p1ulv12619.1.2 kV=0.2080002494301389 Vminpu=0.8 Vmaxpu=1.2 model=1 kW=1.38001 kvar=0.28022298226153225 Phases=2

New Load.load_p1ulv12620 conn=wye bus1=p1ulv12620.1.2 kV=0.2080002494301389 Vminpu=0.8 Vmaxpu=1.2 model=1 kW=3.79004 kvar=0.7696004461493017 Phases=2

New Load.load_p1ulv16133 conn=wye bus1=p1ulv16133.1.2.3 kV=0.48 Vminpu=0.8 Vmaxpu=1.2 model=1 kW=40.1304 kvar=8.148825274706846 Phases=3

New Load.load_p1ulv16135 conn=wye bus1=p1ulv16135.1.2.3 kV=0.48 Vminpu=0.8 Vmaxpu=1.2 model=1 kW=29.4803 kvar=5.986230233088637 Phases=3

New Load.load_p1ulv16136 conn=wye bus1=p1ulv16136.1.2.3 kV=0.48 Vminpu=0.8 Vmaxpu=1.2 model=1 kW=123.551 kvar=25.08810057999186 Phases=3

New Load.load_p1ulv16137 conn=wye bus1=p1ulv16137.1.2.3 kV=0.48 Vminpu=0.8 Vmaxpu=1.2 model=1 kW=50.88049999999999 kvar=10.331726182388454 Phases=3

New Load.load_p1ulv16142 conn=wye bus1=p1ulv16142.1.2.3 kV=0.48 Vminpu=0.8 Vmaxpu=1.2 model=1 kW=69.7907 kvar=14.171606066709604 Phases=3

New Load.load_p1ulv16144 conn=wye bus1=p1ulv16144.1.2.3 kV=0.48 Vminpu=0.8 Vmaxpu=1.2 model=1 kW=105.20100000000001 kvar=21.36197415735789 Phases=3

New Load.load_p1ulv20874 conn=wye bus1=p1ulv20874.1.2 kV=0.2080002494301389 Vminpu=0.8 Vmaxpu=1.2 model=1 kW=10.090100000000001 kvar=2.048882191663167 Phases=2

New Load.load_p1ulv20875 conn=wye bus1=p1ulv20875.1.2.3 kV=0.48 Vminpu=0.8 Vmaxpu=1.2 model=1 kW=63.7906 kvar=12.953233797039513 Phases=3

New Load.load_p1ulv20876 conn=wye bus1=p1ulv20876.1.2.3 kV=0.48 Vminpu=0.8 Vmaxpu=1.2 model=1 kW=115.791 kvar=23.512365373471994 Phases=3

New Load.load_p1ulv20877 conn=wye bus1=p1ulv20877.1.2.3 kV=0.48 Vminpu=0.8 Vmaxpu=1.2 model=1 kW=55.650600000000004 kvar=11.30033629947872 Phases=3

New Load.load_p1ulv20878 conn=wye bus1=p1ulv20878.1.2.3 kV=0.48 Vminpu=0.8 Vmaxpu=1.2 model=1 kW=68.11069999999998 kvar=13.83046751684447 Phases=3

New Load.load_p1ulv20879 conn=wye bus1=p1ulv20879.1.2.3 kV=0.48 Vminpu=0.8 Vmaxpu=1.2 model=1 kW=127.661 kvar=25.92267167519762 Phases=3

New Load.load_p1ulv20880 conn=wye bus1=p1ulv20880.1.2.3 kV=0.48 Vminpu=0.8 Vmaxpu=1.2 model=1 kW=162.822 kvar=33.06241724174985 Phases=3

New Load.load_p1ulv26269 conn=wye bus1=p1ulv26269.1.2.3 kV=0.48 Vminpu=0.8 Vmaxpu=1.2 model=1 kW=28.490300000000005 kvar=5.785202159060973 Phases=3

New Load.load_p1ulv26346 conn=wye bus1=p1ulv26346.1.2 kV=0.2080002494301389 Vminpu=0.8 Vmaxpu=1.2 model=1 kW=10.1401 kvar=3.3292900576450166 Phases=2

New Load.load_p1ulv26415 conn=wye bus1=p1ulv26415.1.2.3 kV=0.48 Vminpu=0.8 Vmaxpu=1.2 model=1 kW=179.362 kvar=36.42100748863628 Phases=3

New Load.load_p1ulv26480 conn=wye bus1=p1ulv26480.1.2.3 kV=0.48 Vminpu=0.8 Vmaxpu=1.2 model=1 kW=35.400400000000005 kvar=7.188357809908006 Phases=3

New Load.load_p1ulv26715 conn=wye bus1=p1ulv26715.1.2.3 kV=0.48 Vminpu=0.8 Vmaxpu=1.2 model=1 kW=33.770300000000006 kvar=6.857351887208515 Phases=3

New Load.load_p1ulv26940 conn=wye bus1=p1ulv26940.1.2.3 kV=0.48 Vminpu=0.8 Vmaxpu=1.2 model=1 kW=93.9909 kvar=19.08566626578463 Phases=3

New Load.load_p1ulv27214 conn=wye bus1=p1ulv27214.1.2.3 kV=0.48 Vminpu=0.8 Vmaxpu=1.2 model=1 kW=50.8905 kvar=10.333756768994796 Phases=3

New Load.load_p1ulv27253 conn=wye bus1=p1ulv27253.1.2 kV=0.2080002494301389 Vminpu=0.8 Vmaxpu=1.2 model=1 kW=6.75007 kvar=1.3706601733857733 Phases=2

New Load.load_p1ulv27325 conn=wye bus1=p1ulv27325.1.2.3 kV=0.48 Vminpu=0.8 Vmaxpu=1.2 model=1 kW=33.9403 kvar=6.891871859516296 Phases=3

New Load.load_p1ulv27719 conn=wye bus1=p1ulv27719.1.2.3 kV=0.48 Vminpu=0.8 Vmaxpu=1.2 model=1 kW=32.1903 kvar=6.536519203406788 Phases=3

New Load.load_p1ulv27794 conn=wye bus1=p1ulv27794.1.2.3 kV=0.48 Vminpu=0.8 Vmaxpu=1.2 model=1 kW=23.840200000000003 kvar=4.840959081246789 Phases=3

New Load.load_p1ulv28003 conn=wye bus1=p1ulv28003.1.2.3 kV=0.48 Vminpu=0.8 Vmaxpu=1.2 model=1 kW=64.5106 kvar=13.099436032695996 Phases=3

New Load.load_p1ulv28074 conn=wye bus1=p1ulv28074.1.2 kV=0.2080002494301389 Vminpu=0.8 Vmaxpu=1.2 model=1 kW=15.310200000000002 kvar=3.108868706038733 Phases=2

New Load.load_p1ulv28151 conn=wye bus1=p1ulv28151.1.2 kV=0.2080002494301389 Vminpu=0.8 Vmaxpu=1.2 model=1 kW=3.99004 kvar=0.8102121782761024 Phases=2

New Load.load_p1ulv28299 conn=wye bus1=p1ulv28299.1.2.3 kV=0.48 Vminpu=0.8 Vmaxpu=1.2 model=1 kW=38.39039999999999 kvar=7.795503205203678 Phases=3

New Load.load_p1ulv28375 conn=wye bus1=p1ulv28375.1.2.3 kV=0.48 Vminpu=0.8 Vmaxpu=1.2 model=1 kW=82.0008 kvar=16.65097261891686 Phases=3

New Load.load_p1ulv28528 conn=wye bus1=p1ulv28528.1.2.3 kV=0.48 Vminpu=0.8 Vmaxpu=1.2 model=1 kW=24.1802 kvar=4.9099990258623505 Phases=3

New Load.load_p1ulv28731 conn=wye bus1=p1ulv28731.1.2.3 kV=0.48 Vminpu=0.8 Vmaxpu=1.2 model=1 kW=48.5105 kvar=9.850477156685866 Phases=3

New Load.load_p1ulv29025 conn=wye bus1=p1ulv29025.1.2.3 kV=0.48 Vminpu=0.8 Vmaxpu=1.2 model=1 kW=29.990300000000005 kvar=6.0897901500119795 Phases=3

New Load.load_p1ulv29366 conn=wye bus1=p1ulv29366.1.2 kV=0.2080002494301389 Vminpu=0.8 Vmaxpu=1.2 model=1 kW=4.40004 kvar=0.8911613351670004 Phases=2

New Load.load_p1ulv29496 conn=wye bus1=p1ulv29496.1.2.3 kV=0.48 Vminpu=0.8 Vmaxpu=1.2 model=1 kW=28.6403 kvar=5.815660958156074 Phases=3

New Load.load_p1ulv29572 conn=wye bus1=p1ulv29572.1.2.3 kV=0.48 Vminpu=0.8 Vmaxpu=1.2 model=1 kW=23.3002 kvar=4.7313074045044266 Phases=3

New Load.load_p1ulv29718 conn=wye bus1=p1ulv29718.1.2 kV=0.2080002494301389 Vminpu=0.8 Vmaxpu=1.2 model=1 kW=18.0802 kvar=3.6713411959949247 Phases=2

New Load.load_p1ulv29794 conn=wye bus1=p1ulv29794.1.2 kV=0.2080002494301389 Vminpu=0.8 Vmaxpu=1.2 model=1 kW=8.53009 kvar=1.7321086504875136 Phases=2

New Load.load_p1ulv29963 conn=wye bus1=p1ulv29963.1.2.3 kV=0.48 Vminpu=0.8 Vmaxpu=1.2 model=1 kW=25.9403 kvar=5.267402574444261 Phases=3

New Load.load_p1ulv29965 conn=wye bus1=p1ulv29965.1.2 kV=0.2080002494301389 Vminpu=0.8 Vmaxpu=1.2 model=1 kW=4.72005 kvar=0.9609139495179535 Phases=2

New Load.load_p1ulv30172 conn=wye bus1=p1ulv30172.1.2 kV=0.2080002494301389 Vminpu=0.8 Vmaxpu=1.2 model=1 kW=8.30008 kvar=1.689741137088585 Phases=2

New Load.load_p1ulv30301 conn=wye bus1=p1ulv30301.1.2 kV=0.2080002494301389 Vminpu=0.8 Vmaxpu=1.2 model=1 kW=3.48003 kvar=0.71028378024263 Phases=2

New Load.load_p1ulv30328 conn=wye bus1=p1ulv30328.1.2 kV=0.2080002494301389 Vminpu=0.8 Vmaxpu=1.2 model=1 kW=5.14005 kvar=1.6894527348246153 Phases=2

New Load.load_p1ulv30517 conn=wye bus1=p1ulv30517.1.2 kV=0.2080002494301389 Vminpu=0.8 Vmaxpu=1.2 model=1 kW=5.61006 kvar=1.1391712696764018 Phases=2

New Load.load_p1ulv30570 conn=wye bus1=p1ulv30570.1.2.3 kV=0.48 Vminpu=0.8 Vmaxpu=1.2 model=1 kW=22.9702 kvar=4.664298046495205 Phases=3

New Load.load_p1ulv30689 conn=wye bus1=p1ulv30689.1.2 kV=0.2080002494301389 Vminpu=0.8 Vmaxpu=1.2 model=1 kW=2.46002 kvar=0.49952836633286324 Phases=2

New Load.load_p1ulv31250 conn=wye bus1=p1ulv31250.1.2.3 kV=0.48 Vminpu=0.8 Vmaxpu=1.2 model=1 kW=41.5204 kvar=8.431076812988112 Phases=3

New Load.load_p1ulv31392 conn=wye bus1=p1ulv31392.1.2.3 kV=0.48 Vminpu=0.8 Vmaxpu=1.2 model=1 kW=29.990300000000005 kvar=6.0897901500119795 Phases=3

New Load.load_p1ulv31516 conn=wye bus1=p1ulv31516.1.2.3 kV=0.48 Vminpu=0.8 Vmaxpu=1.2 model=1 kW=46.81049999999999 kvar=9.505277433608057 Phases=3

New Load.load_p1ulv31613 conn=wye bus1=p1ulv31613.1.2.3 kV=0.48 Vminpu=0.8 Vmaxpu=1.2 model=1 kW=38.6704 kvar=7.8523596301811995 Phases=3

New Load.load_p1ulv31919 conn=wye bus1=p1ulv31919.1.2 kV=0.2080002494301389 Vminpu=0.8 Vmaxpu=1.2 model=1 kW=6.32006 kvar=1.2800322515103388 Phases=2

New Load.load_p1ulv31950 conn=wye bus1=p1ulv31950.1.2.3 kV=0.48 Vminpu=0.8 Vmaxpu=1.2 model=1 kW=36.760400000000004 kvar=7.464517588370252 Phases=3

New Load.load_p1ulv32069 conn=wye bus1=p1ulv32069.1.2 kV=0.2080002494301389 Vminpu=0.8 Vmaxpu=1.2 model=1 kW=7.79008 kvar=1.581843211031744 Phases=2

New Load.load_p1ulv32293 conn=wye bus1=p1ulv32293.1.2 kV=0.2080002494301389 Vminpu=0.8 Vmaxpu=1.2 model=1 kW=9.10009 kvar=1.8478520870488961 Phases=2

New Load.load_p1ulv32810 conn=wye bus1=p1ulv32810.1.2.3 kV=0.48 Vminpu=0.8 Vmaxpu=1.2 model=1 kW=23.2302 kvar=4.717093298260046 Phases=3

New Load.load_p1ulv33030 conn=wye bus1=p1ulv33030.1.2 kV=0.2080002494301389 Vminpu=0.8 Vmaxpu=1.2 model=1 kW=12.7101 kvar=2.580895882524258 Phases=2

New Load.load_p1ulv33154 conn=wye bus1=p1ulv33154.1.2.3 kV=0.48 Vminpu=0.8 Vmaxpu=1.2 model=1 kW=39.900400000000005 kvar=8.102121782761026 Phases=3

New Load.load_p1ulv33188 conn=wye bus1=p1ulv33188.1.2.3 kV=0.48 Vminpu=0.8 Vmaxpu=1.2 model=1 kW=23.8602 kvar=4.8450202544594685 Phases=3

New Load.load_p1ulv33389 conn=wye bus1=p1ulv33389.1.2.3 kV=0.48 Vminpu=0.8 Vmaxpu=1.2 model=1 kW=51.880499999999984 kvar=10.534784843022459 Phases=3

New Load.load_p1ulv33506 conn=wye bus1=p1ulv33506.1.2.3 kV=0.48 Vminpu=0.8 Vmaxpu=1.2 model=1 kW=29.230300000000003 kvar=5.935465567930136 Phases=3

New Load.load_p1ulv33586 conn=wye bus1=p1ulv33586.1.2 kV=0.2080002494301389 Vminpu=0.8 Vmaxpu=1.2 model=1 kW=6.98007 kvar=2.289280449138054 Phases=2

New Load.load_p1ulv33676 conn=wye bus1=p1ulv33676.1.2.3 kV=0.48 Vminpu=0.8 Vmaxpu=1.2 model=1 kW=90.0509 kvar=18.285615142886655 Phases=3

New Load.load_p1ulv33736 conn=wye bus1=p1ulv33736.1.2 kV=0.2080002494301389 Vminpu=0.8 Vmaxpu=1.2 model=1 kW=13.920100000000001 kvar=2.826596861891403 Phases=2

New Load.load_p1ulv33892 conn=wye bus1=p1ulv33892.1.2 kV=0.2080002494301389 Vminpu=0.8 Vmaxpu=1.2 model=1 kW=4.840050000000001 kvar=0.9802786838926555 Phases=2

New Load.load_p1ulv34468 conn=wye bus1=p1ulv34468.1.2.3 kV=0.48 Vminpu=0.8 Vmaxpu=1.2 model=1 kW=40.9104 kvar=8.30721103000137 Phases=3

New Load.load_p1ulv34584 conn=wye bus1=p1ulv34584.1.2 kV=0.2080002494301389 Vminpu=0.8 Vmaxpu=1.2 model=1 kW=3.72004 kvar=0.7592704872813721 Phases=2

New Load.load_p1ulv34658 conn=wye bus1=p1ulv34658.1.2.3 kV=0.48 Vminpu=0.8 Vmaxpu=1.2 model=1 kW=30.850299999999997 kvar=6.264420598157223 Phases=3

New Load.load_p1ulv34720 conn=wye bus1=p1ulv34720.1.2 kV=0.2080002494301389 Vminpu=0.8 Vmaxpu=1.2 model=1 kW=14.6501 kvar=2.967155452298177 Phases=2

New Load.load_p1ulv34778 conn=wye bus1=p1ulv34778.1.2 kV=0.2080002494301389 Vminpu=0.8 Vmaxpu=1.2 model=1 kW=5.87006 kvar=1.1888915798743651 Phases=2

New Load.load_p1ulv34812 conn=wye bus1=p1ulv34812.1.2.3 kV=0.48 Vminpu=0.8 Vmaxpu=1.2 model=1 kW=60.3706 kvar=12.258773177671221 Phases=3

New Load.load_p1ulv34937 conn=wye bus1=p1ulv34937.1.2 kV=0.2080002494301389 Vminpu=0.8 Vmaxpu=1.2 model=1 kW=13.7501 kvar=2.7920768895836225 Phases=2

New Load.load_p1ulv35082 conn=wye bus1=p1ulv35082.1.2.3 kV=0.48 Vminpu=0.8 Vmaxpu=1.2 model=1 kW=63.24060000000001 kvar=12.84155153369081 Phases=3

New Load.load_p1ulv35296 conn=wye bus1=p1ulv35296.1.2 kV=0.2080002494301389 Vminpu=0.8 Vmaxpu=1.2 model=1 kW=3.21003 kvar=0.6501428670480555 Phases=2

New Load.load_p1ulv35367 conn=wye bus1=p1ulv35367.1.2.3 kV=0.48 Vminpu=0.8 Vmaxpu=1.2 model=1 kW=24.050199999999997 kvar=4.88360139997993 Phases=3

New Load.load_p1ulv35444 conn=wye bus1=p1ulv35444.1.2.3 kV=0.48 Vminpu=0.8 Vmaxpu=1.2 model=1 kW=193.982 kvar=39.38972510710543 Phases=3

New Load.load_p1ulv35510 conn=wye bus1=p1ulv35510.1.2 kV=0.2080002494301389 Vminpu=0.8 Vmaxpu=1.2 model=1 kW=5.80006 kvar=1.1807837972142463 Phases=2

New Load.load_p1ulv35587 conn=wye bus1=p1ulv35587.1.2.3 kV=0.48 Vminpu=0.8 Vmaxpu=1.2 model=1 kW=25.7203 kvar=5.2227296691047815 Phases=3

New Load.load_p1ulv36224 conn=wye bus1=p1ulv36224.1.2.3 kV=0.48 Vminpu=0.8 Vmaxpu=1.2 model=1 kW=37.0804 kvar=7.529496359773132 Phases=3

New Load.load_p1ulv36336 conn=wye bus1=p1ulv36336.1.2 kV=0.2080002494301389 Vminpu=0.8 Vmaxpu=1.2 model=1 kW=6.23006 kvar=1.271572534701827 Phases=2

New Load.load_p1ulv36415 conn=wye bus1=p1ulv36415.1.2.3 kV=0.48 Vminpu=0.8 Vmaxpu=1.2 model=1 kW=23.880200000000002 kvar=4.849081427672148 Phases=3

New Load.load_p1ulv36699 conn=wye bus1=p1ulv36699.1.2.3 kV=0.48 Vminpu=0.8 Vmaxpu=1.2 model=1 kW=37.3604 kvar=7.586352784750654 Phases=3

New Load.load_p1ulv36772 conn=wye bus1=p1ulv36772.1.2.3 kV=0.48 Vminpu=0.8 Vmaxpu=1.2 model=1 kW=24.480200000000004 kvar=4.970916624052552 Phases=3

New Load.load_p1ulv36844 conn=wye bus1=p1ulv36844.1.2.3 kV=0.48 Vminpu=0.8 Vmaxpu=1.2 model=1 kW=55.5106 kvar=11.27190808698996 Phases=3

New Load.load_p1ulv36910 conn=wye bus1=p1ulv36910.1.2.3 kV=0.48 Vminpu=0.8 Vmaxpu=1.2 model=1 kW=29.3603 kvar=5.961863193812556 Phases=3

New Load.load_p1ulv36981 conn=wye bus1=p1ulv36981.1.2.3 kV=0.48 Vminpu=0.8 Vmaxpu=1.2 model=1 kW=33.5703 kvar=6.816740155081714 Phases=3

New Load.load_p1ulv37053 conn=wye bus1=p1ulv37053.1.2 kV=0.2080002494301389 Vminpu=0.8 Vmaxpu=1.2 model=1 kW=1.43001 kvar=0.2903759152932325 Phases=2

New Load.load_p1ulv37454 conn=wye bus1=p1ulv37454.1.2.3 kV=0.48 Vminpu=0.8 Vmaxpu=1.2 model=1 kW=40.10039999999999 kvar=8.142733514887826 Phases=3

New Load.load_p1ulv37573 conn=wye bus1=p1ulv37573.1.2 kV=0.2080002494301389 Vminpu=0.8 Vmaxpu=1.2 model=1 kW=4.02004 kvar=0.8205013197951115 Phases=2

New Load.load_p1ulv37578 conn=wye bus1=p1ulv37578.1.2.3 kV=0.48 Vminpu=0.8 Vmaxpu=1.2 model=1 kW=28.980300000000003 kvar=9.515076247529105 Phases=3

New Load.load_p1ulv37654 conn=wye bus1=p1ulv37654.1.2.3 kV=0.48 Vminpu=0.8 Vmaxpu=1.2 model=1 kW=24.670199999999998 kvar=5.009497769573012 Phases=3

New Load.load_p1ulv37721 conn=wye bus1=p1ulv37721.1.2.3 kV=0.48 Vminpu=0.8 Vmaxpu=1.2 model=1 kW=147.841 kvar=30.02039544679183 Phases=3

New Load.load_p1ulv37782 conn=wye bus1=p1ulv37782.1.2.3 kV=0.48 Vminpu=0.8 Vmaxpu=1.2 model=1 kW=26.9703 kvar=5.476552994897285 Phases=3

New Load.load_p1ulv37913 conn=wye bus1=p1ulv37913.1.2 kV=0.2080002494301389 Vminpu=0.8 Vmaxpu=1.2 model=1 kW=3.44003 kvar=0.7003258045487328 Phases=2

New Load.load_p1ulv37994 conn=wye bus1=p1ulv37994.1.2 kV=0.2080002494301389 Vminpu=0.8 Vmaxpu=1.2 model=1 kW=6.93007 kvar=2.2802620861045217 Phases=2

New Load.load_p1ulv37996 conn=wye bus1=p1ulv37996.1.2 kV=0.2080002494301389 Vminpu=0.8 Vmaxpu=1.2 model=1 kW=2.04002 kvar=0.4099544614599067 Phases=2

New Load.load_p1ulv38073 conn=wye bus1=p1ulv38073.1.2.3 kV=0.48 Vminpu=0.8 Vmaxpu=1.2 model=1 kW=80.0808 kvar=16.26109999049957 Phases=3

New Load.load_p1ulv38137 conn=wye bus1=p1ulv38137.1.2 kV=0.2080002494301389 Vminpu=0.8 Vmaxpu=1.2 model=1 kW=11.4701 kvar=3.770039554812078 Phases=2

New Load.load_p1ulv38214 conn=wye bus1=p1ulv38214.1.2.3 kV=0.48 Vminpu=0.8 Vmaxpu=1.2 model=1 kW=33.48030000000001 kvar=6.798464875624655 Phases=3

New Load.load_p1ulv38289 conn=wye bus1=p1ulv38289.1.2 kV=0.2080002494301389 Vminpu=0.8 Vmaxpu=1.2 model=1 kW=6.19006 kvar=1.2601805070609642 Phases=2

New Load.load_p1ulv38367 conn=wye bus1=p1ulv38367.1.2 kV=0.2080002494301389 Vminpu=0.8 Vmaxpu=1.2 model=1 kW=5.02005 kvar=1.650010642203152 Phases=2

New Load.load_p1ulv38515 conn=wye bus1=p1ulv38515.1.2 kV=0.2080002494301389 Vminpu=0.8 Vmaxpu=1.2 model=1 kW=3.54004 kvar=0.7206859710917335 Phases=2

New Load.load_p1ulv38592 conn=wye bus1=p1ulv38592.1.2.3 kV=0.48 Vminpu=0.8 Vmaxpu=1.2 model=1 kW=37.6204 kvar=7.639148036515493 Phases=3

New Load.load_p1ulv38893 conn=wye bus1=p1ulv38893.1.2.3 kV=0.48 Vminpu=0.8 Vmaxpu=1.2 model=1 kW=32.8703 kvar=6.67459909263791 Phases=3

New Load.load_p1ulv39111 conn=wye bus1=p1ulv39111.1.2.3 kV=0.48 Vminpu=0.8 Vmaxpu=1.2 model=1 kW=20.8102 kvar=4.214790233064315 Phases=3

New Load.load_p1ulv39242 conn=wye bus1=p1ulv39242.1.2 kV=0.2080002494301389 Vminpu=0.8 Vmaxpu=1.2 model=1 kW=3.23003 kvar=0.6592580864811803 Phases=2

New Load.load_p1ulv39477 conn=wye bus1=p1ulv39477.1.2 kV=0.2080002494301389 Vminpu=0.8 Vmaxpu=1.2 model=1 kW=2.01002 kvar=0.41025065989755577 Phases=2

New Load.load_p1ulv39614 conn=wye bus1=p1ulv39614.1.2 kV=0.2080002494301389 Vminpu=0.8 Vmaxpu=1.2 model=1 kW=5.47005 kvar=1.110741026601035 Phases=2

New Load.load_p1ulv39686 conn=wye bus1=p1ulv39686.1.2 kV=0.2080002494301389 Vminpu=0.8 Vmaxpu=1.2 model=1 kW=3.64004 kvar=0.739141647054201 Phases=2

New Load.load_p1ulv39724 conn=wye bus1=p1ulv39724.1.2.3 kV=0.48 Vminpu=0.8 Vmaxpu=1.2 model=1 kW=36.1204 kvar=7.334560045564487 Phases=3

New Load.load_p1ulv39791 conn=wye bus1=p1ulv39791.1.2 kV=0.2080002494301389 Vminpu=0.8 Vmaxpu=1.2 model=1 kW=16.430200000000003 kvar=5.400345584909758 Phases=2

New Load.load_p1ulv39859 conn=wye bus1=p1ulv39859.1.2.3 kV=0.48 Vminpu=0.8 Vmaxpu=1.2 model=1 kW=118.441 kvar=24.050470824152104 Phases=3

New Load.load_p1ulv39878 conn=wye bus1=p1ulv39878.1.2 kV=0.2080002494301389 Vminpu=0.8 Vmaxpu=1.2 model=1 kW=4.52005 kvar=0.9201976880580982 Phases=2

New Load.load_p1ulv39994 conn=wye bus1=p1ulv39994.1.2 kV=0.2080002494301389 Vminpu=0.8 Vmaxpu=1.2 model=1 kW=4.28004 kvar=0.8690991898599637 Phases=2

New Load.load_p1ulv40035 conn=wye bus1=p1ulv40035.1.2.3 kV=0.48 Vminpu=0.8 Vmaxpu=1.2 model=1 kW=38.0904 kvar=7.734585607013479 Phases=3

New Load.load_p1ulv40346 conn=wye bus1=p1ulv40346.1.2.3 kV=0.48 Vminpu=0.8 Vmaxpu=1.2 model=1 kW=47.6605 kvar=9.677877295146962 Phases=3

New Load.load_p1ulv40430 conn=wye bus1=p1ulv40430.1.2 kV=0.2080002494301389 Vminpu=0.8 Vmaxpu=1.2 model=1 kW=4.96005 kvar=1.0097734632697801 Phases=2

New Load.load_p1ulv40468 conn=wye bus1=p1ulv40468.1.2 kV=0.2080002494301389 Vminpu=0.8 Vmaxpu=1.2 model=1 kW=6.58007 kvar=2.1604285588513172 Phases=2

New Load.load_p1ulv40540 conn=wye bus1=p1ulv40540.1.2.3 kV=0.48 Vminpu=0.8 Vmaxpu=1.2 model=1 kW=22.880200000000002 kvar=4.646022767038145 Phases=3

New Load.load_p1ulv40657 conn=wye bus1=p1ulv40657.1.2 kV=0.2080002494301389 Vminpu=0.8 Vmaxpu=1.2 model=1 kW=8.28008 kvar=1.6813419547424064 Phases=2

New Load.load_p1ulv40805 conn=wye bus1=p1ulv40805.1.2.3 kV=0.48 Vminpu=0.8 Vmaxpu=1.2 model=1 kW=34.6603 kvar=7.038074095172779 Phases=3

New Load.load_p1ulv40867 conn=wye bus1=p1ulv40867.1.2.3 kV=0.48 Vminpu=0.8 Vmaxpu=1.2 model=1 kW=28.710300000000004 kvar=5.829875064400454 Phases=3

New Load.load_p1ulv40914 conn=wye bus1=p1ulv40914.1.2.3 kV=0.48 Vminpu=0.8 Vmaxpu=1.2 model=1 kW=31.870299999999997 kvar=6.471540432003907 Phases=3

New Load.load_p1ulv41046 conn=wye bus1=p1ulv41046.1.2 kV=0.2080002494301389 Vminpu=0.8 Vmaxpu=1.2 model=1 kW=1.38001 kvar=0.28022298226153225 Phases=2

New Load.load_p1ulv41112 conn=wye bus1=p1ulv41112.1.2.3 kV=0.48 Vminpu=0.8 Vmaxpu=1.2 model=1 kW=35.7204 kvar=7.2533365813108865 Phases=3

New Load.load_p1ulv41130 conn=wye bus1=p1ulv41130.1.2.3 kV=0.48 Vminpu=0.8 Vmaxpu=1.2 model=1 kW=38.16040000000001 kvar=7.748799713257859 Phases=3

New Load.load_p1ulv41253 conn=wye bus1=p1ulv41253.1.2 kV=0.2080002494301389 Vminpu=0.8 Vmaxpu=1.2 model=1 kW=14.4701 kvar=2.938279125240106 Phases=2

New Load.load_p1ulv41343 conn=wye bus1=p1ulv41343.1.2 kV=0.2080002494301389 Vminpu=0.8 Vmaxpu=1.2 model=1 kW=2.77003 kvar=0.5595731887375364 Phases=2

New Load.load_p1ulv41644 conn=wye bus1=p1ulv41644.1.2 kV=0.2080002494301389 Vminpu=0.8 Vmaxpu=1.2 model=1 kW=1.84002 kvar=0.36976324162285545 Phases=2

New Load.load_p1ulv41755 conn=wye bus1=p1ulv41755.1.2.3 kV=0.48 Vminpu=0.8 Vmaxpu=1.2 model=1 kW=72.7207 kvar=14.766567942367235 Phases=3

New Load.load_p1ulv41773 conn=wye bus1=p1ulv41773.1.2.3 kV=0.48 Vminpu=0.8 Vmaxpu=1.2 model=1 kW=34.2403 kvar=6.952789457706497 Phases=3

New Load.load_p1ulv41909 conn=wye bus1=p1ulv41909.1.2 kV=0.2080002494301389 Vminpu=0.8 Vmaxpu=1.2 model=1 kW=8.41008 kvar=1.7121350808915057 Phases=2

New Load.load_p1ulv42023 conn=wye bus1=p1ulv42023.1.2 kV=0.2080002494301389 Vminpu=0.8 Vmaxpu=1.2 model=1 kW=3.50004 kvar=0.7107134345654403 Phases=2

New Load.load_p1ulv42082 conn=wye bus1=p1ulv42082.1.2 kV=0.2080002494301389 Vminpu=0.8 Vmaxpu=1.2 model=1 kW=2.86003 kvar=0.5807538611730713 Phases=2

New Load.load_p1ulv42252 conn=wye bus1=p1ulv42252.1.2.3 kV=0.48 Vminpu=0.8 Vmaxpu=1.2 model=1 kW=52.8405 kvar=10.729721157231104 Phases=3

New Load.load_p1ulv42695 conn=wye bus1=p1ulv42695.1.2.3 kV=0.48 Vminpu=0.8 Vmaxpu=1.2 model=1 kW=30.430299999999995 kvar=6.179135960690941 Phases=3

New Load.load_p1ulv42996 conn=wye bus1=p1ulv42996.1.2 kV=0.2080002494301389 Vminpu=0.8 Vmaxpu=1.2 model=1 kW=3.46003 kvar=0.7007765735124853 Phases=2

New Load.load_p1ulv43148 conn=wye bus1=p1ulv43148.1.2 kV=0.2080002494301389 Vminpu=0.8 Vmaxpu=1.2 model=1 kW=3.72004 kvar=0.7592704872813721 Phases=2

New Load.load_p1ulv43248 conn=wye bus1=p1ulv43248.1.2 kV=0.2080002494301389 Vminpu=0.8 Vmaxpu=1.2 model=1 kW=3.68004 kvar=0.7491873541136322 Phases=2

New Load.load_p1ulv43264 conn=wye bus1=p1ulv43264.1.2 kV=0.2080002494301389 Vminpu=0.8 Vmaxpu=1.2 model=1 kW=4.4900400000000005 kvar=0.9093894694941951 Phases=2

New Load.load_p1ulv43304 conn=wye bus1=p1ulv43304.1.2.3 kV=0.48 Vminpu=0.8 Vmaxpu=1.2 model=1 kW=35.8304 kvar=7.275673033980627 Phases=3

New Load.load_p1ulv43565 conn=wye bus1=p1ulv43565.1.2 kV=0.2080002494301389 Vminpu=0.8 Vmaxpu=1.2 model=1 kW=4.41004 kvar=0.890871270441145 Phases=2

New Load.load_p1ulv43584 conn=wye bus1=p1ulv43584.1.2 kV=0.2080002494301389 Vminpu=0.8 Vmaxpu=1.2 model=1 kW=3.54004 kvar=0.7206859710917335 Phases=2

New Load.load_p1ulv43628 conn=wye bus1=p1ulv43628.1.2.3 kV=0.48 Vminpu=0.8 Vmaxpu=1.2 model=1 kW=48.55049999999999 kvar=9.858599503111225 Phases=3

New Load.load_p1ulv43691 conn=wye bus1=p1ulv43691.1.2 kV=0.2080002494301389 Vminpu=0.8 Vmaxpu=1.2 model=1 kW=8.22008 kvar=1.6691584351043662 Phases=2

New Load.load_p1ulv43713 conn=wye bus1=p1ulv43713.1.2 kV=0.2080002494301389 Vminpu=0.8 Vmaxpu=1.2 model=1 kW=4.96005 kvar=1.0097734632697801 Phases=2

New Load.load_p1ulv43753 conn=wye bus1=p1ulv43753.1.2.3 kV=0.48 Vminpu=0.8 Vmaxpu=1.2 model=1 kW=33.8403 kvar=6.8715659934528945 Phases=3

New Load.load_p1ulv43911 conn=wye bus1=p1ulv43911.1.2.3 kV=0.48 Vminpu=0.8 Vmaxpu=1.2 model=1 kW=27.330300000000005 kvar=5.549654112725528 Phases=3

New Load.load_p1ulv43977 conn=wye bus1=p1ulv43977.1.2 kV=0.2080002494301389 Vminpu=0.8 Vmaxpu=1.2 model=1 kW=17.8202 kvar=3.6185459442300836 Phases=2

New Load.load_p1ulv44050 conn=wye bus1=p1ulv44050.1.2.3 kV=0.48 Vminpu=0.8 Vmaxpu=1.2 model=1 kW=41.0904 kvar=8.343761588915491 Phases=3

New Load.load_p1ulv44110 conn=wye bus1=p1ulv44110.1.2.3 kV=0.48 Vminpu=0.8 Vmaxpu=1.2 model=1 kW=36.6504 kvar=7.442181135700512 Phases=3

New Load.load_p1ulv44188 conn=wye bus1=p1ulv44188.1.2.3 kV=0.48 Vminpu=0.8 Vmaxpu=1.2 model=1 kW=33.8303 kvar=6.869535406846555 Phases=3

New Load.load_p1ulv44480 conn=wye bus1=p1ulv44480.1.2.3 kV=0.48 Vminpu=0.8 Vmaxpu=1.2 model=1 kW=29.440300000000004 kvar=5.978107886663278 Phases=3

New Load.load_p1ulv44558 conn=wye bus1=p1ulv44558.1.2.3 kV=0.48 Vminpu=0.8 Vmaxpu=1.2 model=1 kW=23.9202 kvar=4.857203774097511 Phases=3

New Load.load_p1ulv44769 conn=wye bus1=p1ulv44769.1.2 kV=0.2080002494301389 Vminpu=0.8 Vmaxpu=1.2 model=1 kW=4.94005 kvar=1.0005321664784275 Phases=2

New Load.load_p1ulv44786 conn=wye bus1=p1ulv44786.1.2.3 kV=0.48 Vminpu=0.8 Vmaxpu=1.2 model=1 kW=29.590299999999996 kvar=6.008566685758376 Phases=3

New Load.load_p1ulv44823 conn=wye bus1=p1ulv44823.1.2.3 kV=0.48 Vminpu=0.8 Vmaxpu=1.2 model=1 kW=32.6403 kvar=6.627895600692091 Phases=3

New Load.load_p1ulv44838 conn=wye bus1=p1ulv44838.1.2 kV=0.2080002494301389 Vminpu=0.8 Vmaxpu=1.2 model=1 kW=4.42004 kvar=0.8998375215150975 Phases=2

New Load.load_p1ulv45078 conn=wye bus1=p1ulv45078.1.2 kV=0.2080002494301389 Vminpu=0.8 Vmaxpu=1.2 model=1 kW=5.55006 kvar=1.8301181518083305 Phases=2

New Load.load_p1ulv45148 conn=wye bus1=p1ulv45148.1.2.3 kV=0.48 Vminpu=0.8 Vmaxpu=1.2 model=1 kW=57.19060000000001 kvar=11.613046636855088 Phases=3

New Load.load_p1ulv45167 conn=wye bus1=p1ulv45167.1.2.3 kV=0.48 Vminpu=0.8 Vmaxpu=1.2 model=1 kW=35.9204 kvar=7.293948313437689 Phases=3

New Load.load_p1ulv45209 conn=wye bus1=p1ulv45209.1.2.3 kV=0.48 Vminpu=0.8 Vmaxpu=1.2 model=1 kW=31.410300000000003 kvar=6.378133448112265 Phases=3

New Load.load_p1ulv45277 conn=wye bus1=p1ulv45277.1.2.3 kV=0.48 Vminpu=0.8 Vmaxpu=1.2 model=1 kW=35.86039999999999 kvar=7.281764793799646 Phases=3

New Load.load_p1ulv45293 conn=wye bus1=p1ulv45293.1.2 kV=0.2080002494301389 Vminpu=0.8 Vmaxpu=1.2 model=1 kW=4.25004 kvar=0.8607811112883423 Phases=2

New Load.load_p1ulv45335 conn=wye bus1=p1ulv45335.1.2 kV=0.2080002494301389 Vminpu=0.8 Vmaxpu=1.2 model=1 kW=3.46003 kvar=0.7007765735124853 Phases=2

New Load.load_p1ulv45468 conn=wye bus1=p1ulv45468.1.2.3 kV=0.48 Vminpu=0.8 Vmaxpu=1.2 model=1 kW=42.0804 kvar=8.544789662943154 Phases=3

New Load.load_p1ulv45608 conn=wye bus1=p1ulv45608.1.2.3 kV=0.48 Vminpu=0.8 Vmaxpu=1.2 model=1 kW=51.3805 kvar=10.433255512705458 Phases=3

New Load.load_p1ulv45682 conn=wye bus1=p1ulv45682.1.2.3 kV=0.48 Vminpu=0.8 Vmaxpu=1.2 model=1 kW=102.70100000000001 kvar=20.854327505772872 Phases=3

New Load.load_p1ulv45929 conn=wye bus1=p1ulv45929.1.2 kV=0.2080002494301389 Vminpu=0.8 Vmaxpu=1.2 model=1 kW=5.130050000000001 kvar=1.0390137833913942 Phases=2

New Load.load_p1ulv45998 conn=wye bus1=p1ulv45998.1.2.3 kV=0.48 Vminpu=0.8 Vmaxpu=1.2 model=1 kW=105.751 kvar=21.47365642070659 Phases=3

New Load.load_p1ulv46073 conn=wye bus1=p1ulv46073.1.2.3 kV=0.48 Vminpu=0.8 Vmaxpu=1.2 model=1 kW=94.1509 kvar=19.11815565148607 Phases=3

New Load.load_p1ulv46240 conn=wye bus1=p1ulv46240.1.2.3 kV=0.48 Vminpu=0.8 Vmaxpu=1.2 model=1 kW=48.13049999999999 kvar=9.773314865644942 Phases=3

New Load.load_p1ulv46371 conn=wye bus1=p1ulv46371.1.2.3 kV=0.48 Vminpu=0.8 Vmaxpu=1.2 model=1 kW=42.3404 kvar=8.597584914707996 Phases=3

New Load.load_p1ulv46434 conn=wye bus1=p1ulv46434.1.2 kV=0.2080002494301389 Vminpu=0.8 Vmaxpu=1.2 model=1 kW=16.0402 kvar=3.2571015283015554 Phases=2

New Load.load_p1ulv46527 conn=wye bus1=p1ulv46527.1.2.3 kV=0.48 Vminpu=0.8 Vmaxpu=1.2 model=1 kW=45.6205 kvar=9.263637627453594 Phases=3

New Load.load_p1ulv46822 conn=wye bus1=p1ulv46822.1.2 kV=0.2080002494301389 Vminpu=0.8 Vmaxpu=1.2 model=1 kW=4.09004 kvar=0.8305180443395029 Phases=2

New Load.load_p1ulv46881 conn=wye bus1=p1ulv46881.1.2.3 kV=0.48 Vminpu=0.8 Vmaxpu=1.2 model=1 kW=35.8704 kvar=7.283795380405987 Phases=3

New Load.load_p1ulv46926 conn=wye bus1=p1ulv46926.1.2 kV=0.2080002494301389 Vminpu=0.8 Vmaxpu=1.2 model=1 kW=9.7101 kvar=1.9717199006222452 Phases=2

New Load.load_p1ulv47320 conn=wye bus1=p1ulv47320.1.2 kV=0.2080002494301389 Vminpu=0.8 Vmaxpu=1.2 model=1 kW=3.77004 kvar=0.7596010602602379 Phases=2

New Load.load_p1ulv47399 conn=wye bus1=p1ulv47399.1.2.3 kV=0.48 Vminpu=0.8 Vmaxpu=1.2 model=1 kW=22.9402 kvar=4.658206286676186 Phases=3

New Load.load_p1ulv47572 conn=wye bus1=p1ulv47572.1.2.3 kV=0.48 Vminpu=0.8 Vmaxpu=1.2 model=1 kW=39.4404 kvar=8.008714798869383 Phases=3

New Load.load_p1ulv47727 conn=wye bus1=p1ulv47727.1.2 kV=0.2080002494301389 Vminpu=0.8 Vmaxpu=1.2 model=1 kW=14.9801 kvar=3.041839042163448 Phases=2

New Load.load_p1ulv47805 conn=wye bus1=p1ulv47805.1.2.3 kV=0.48 Vminpu=0.8 Vmaxpu=1.2 model=1 kW=24.390199999999997 kvar=4.952641344595491 Phases=3

New Load.load_p1ulv47979 conn=wye bus1=p1ulv47979.1.2.3 kV=0.48 Vminpu=0.8 Vmaxpu=1.2 model=1 kW=50.5805 kvar=10.270808584198255 Phases=3

New Load.load_p1ulv48090 conn=wye bus1=p1ulv48090.1.2.3 kV=0.48 Vminpu=0.8 Vmaxpu=1.2 model=1 kW=34.9203 kvar=7.09086934693762 Phases=3

New Load.load_p1ulv48110 conn=wye bus1=p1ulv48110.1.2 kV=0.2080002494301389 Vminpu=0.8 Vmaxpu=1.2 model=1 kW=5.12005 kvar=1.0396704953791336 Phases=2

New Load.load_p1ulv48158 conn=wye bus1=p1ulv48158.1.2 kV=0.2080002494301389 Vminpu=0.8 Vmaxpu=1.2 model=1 kW=2.24002 kvar=0.4595226532057354 Phases=2

New Load.load_p1ulv48423 conn=wye bus1=p1ulv48423.1.2.3 kV=0.48 Vminpu=0.8 Vmaxpu=1.2 model=1 kW=30.8903 kvar=6.272542944582583 Phases=3

New Load.load_p1ulv48484 conn=wye bus1=p1ulv48484.1.2 kV=0.2080002494301389 Vminpu=0.8 Vmaxpu=1.2 model=1 kW=3.13003 kvar=0.6306495704677809 Phases=2

New Load.load_p1ulv48548 conn=wye bus1=p1ulv48548.1.2.3 kV=0.48 Vminpu=0.8 Vmaxpu=1.2 model=1 kW=36.0004 kvar=7.31019300628841 Phases=3

New Load.load_p1ulv48565 conn=wye bus1=p1ulv48565.1.2 kV=0.2080002494301389 Vminpu=0.8 Vmaxpu=1.2 model=1 kW=3.95004 kvar=0.8000206635310265 Phases=2

New Load.load_p1ulv48611 conn=wye bus1=p1ulv48611.1.2 kV=0.2080002494301389 Vminpu=0.8 Vmaxpu=1.2 model=1 kW=1.38001 kvar=0.28022298226153225 Phases=2

New Load.load_p1ulv48794 conn=wye bus1=p1ulv48794.1.2 kV=0.2080002494301389 Vminpu=0.8 Vmaxpu=1.2 model=1 kW=13.6301 kvar=2.767709850307542 Phases=2

New Load.load_p1ulv48871 conn=wye bus1=p1ulv48871.1.2.3 kV=0.48 Vminpu=0.8 Vmaxpu=1.2 model=1 kW=23.050199999999997 kvar=4.680542739345926 Phases=3

New Load.load_p1ulv48935 conn=wye bus1=p1ulv48935.1.2 kV=0.2080002494301389 Vminpu=0.8 Vmaxpu=1.2 model=1 kW=3.17003 kvar=0.6403771062023346 Phases=2

New Load.load_p1ulv48997 conn=wye bus1=p1ulv48997.1.2 kV=0.2080002494301389 Vminpu=0.8 Vmaxpu=1.2 model=1 kW=4.00004 kvar=0.8101474048239126 Phases=2

New Load.load_p1ulv49170 conn=wye bus1=p1ulv49170.1.2 kV=0.2080002494301389 Vminpu=0.8 Vmaxpu=1.2 model=1 kW=1.38001 kvar=0.28022298226153225 Phases=2

New Load.load_p1ulv49245 conn=wye bus1=p1ulv49245.1.2.3 kV=0.48 Vminpu=0.8 Vmaxpu=1.2 model=1 kW=24.580199999999998 kvar=4.991222490115952 Phases=3

New Load.load_p1ulv49469 conn=wye bus1=p1ulv49469.1.2.3 kV=0.48 Vminpu=0.8 Vmaxpu=1.2 model=1 kW=61.110600000000005 kvar=12.409036586540383 Phases=3

New Load.load_p1ulv49658 conn=wye bus1=p1ulv49658.1.2.3 kV=0.48 Vminpu=0.8 Vmaxpu=1.2 model=1 kW=49.850500000000004 kvar=10.12257576193543 Phases=3

New Load.load_p1ulv49676 conn=wye bus1=p1ulv49676.1.2 kV=0.2080002494301389 Vminpu=0.8 Vmaxpu=1.2 model=1 kW=4.450040000000001 kvar=0.898951662187625 Phases=2

New Load.load_p1ulv49721 conn=wye bus1=p1ulv49721.1.2 kV=0.2080002494301389 Vminpu=0.8 Vmaxpu=1.2 model=1 kW=14.430100000000001 kvar=2.9301567788147453 Phases=2

New Load.load_p1ulv49826 conn=wye bus1=p1ulv49826.1.2.3 kV=0.48 Vminpu=0.8 Vmaxpu=1.2 model=1 kW=33.9103 kvar=6.885780099697275 Phases=3

New Load.load_p1ulv50147 conn=wye bus1=p1ulv50147.1.2.3 kV=0.48 Vminpu=0.8 Vmaxpu=1.2 model=1 kW=25.3703 kvar=5.151659137882879 Phases=3

New Load.load_p1ulv50226 conn=wye bus1=p1ulv50226.1.2 kV=0.2080002494301389 Vminpu=0.8 Vmaxpu=1.2 model=1 kW=3.52004 kvar=0.7092301716051945 Phases=2

New Load.load_p1ulv50389 conn=wye bus1=p1ulv50389.1.2 kV=0.2080002494301389 Vminpu=0.8 Vmaxpu=1.2 model=1 kW=14.4601 kvar=2.9438060616782793 Phases=2

New Load.load_p1ulv50449 conn=wye bus1=p1ulv50449.1.2.3 kV=0.48 Vminpu=0.8 Vmaxpu=1.2 model=1 kW=30.910299999999996 kvar=6.276604117795262 Phases=3

New Load.load_p1ulv50459 conn=wye bus1=p1ulv50459.1.2.3 kV=0.48 Vminpu=0.8 Vmaxpu=1.2 model=1 kW=33.66030000000001 kvar=6.835015434538775 Phases=3

New Load.load_p1ulv50847 conn=wye bus1=p1ulv50847.1.2.3 kV=0.48 Vminpu=0.8 Vmaxpu=1.2 model=1 kW=30.940300000000004 kvar=6.282695877614284 Phases=3

New Load.load_p1ulv50970 conn=wye bus1=p1ulv50970.1.2 kV=0.2080002494301389 Vminpu=0.8 Vmaxpu=1.2 model=1 kW=2.89003 kvar=0.5898631429656088 Phases=2

New Load.load_p1ulv51110 conn=wye bus1=p1ulv51110.1.2 kV=0.2080002494301389 Vminpu=0.8 Vmaxpu=1.2 model=1 kW=4.590050000000001 kvar=0.9296449774282256 Phases=2

New Load.load_p1ulv51128 conn=wye bus1=p1ulv51128.1.2 kV=0.2080002494301389 Vminpu=0.8 Vmaxpu=1.2 model=1 kW=3.76004 kvar=0.7595649045608481 Phases=2

New Load.load_p1ulv51226 conn=wye bus1=p1ulv51226.1.2.3 kV=0.48 Vminpu=0.8 Vmaxpu=1.2 model=1 kW=20.1702 kvar=4.095733796719994 Phases=3

New Load.load_p1ulv51495 conn=wye bus1=p1ulv51495.1.2 kV=0.2080002494301389 Vminpu=0.8 Vmaxpu=1.2 model=1 kW=4.38004 kvar=0.8894050559233643 Phases=2

New Load.load_p1ulv51542 conn=wye bus1=p1ulv41644.1.2 kV=0.2080002494301389 Vminpu=0.8 Vmaxpu=1.2 model=1 kW=1.95002 kvar=0.40003141231071515 Phases=2

New Load.load_p1ulv51633 conn=wye bus1=p1ulv51633.1.2 kV=0.2080002494301389 Vminpu=0.8 Vmaxpu=1.2 model=1 kW=5.15005 kvar=1.0511394966246144 Phases=2

New Load.load_p1ulv51676 conn=wye bus1=p1ulv51676.1.2.3 kV=0.48 Vminpu=0.8 Vmaxpu=1.2 model=1 kW=37.650400000000005 kvar=7.645239796334514 Phases=3

New Load.load_p1ulv51920 conn=wye bus1=p1ulv51920.1.2 kV=0.2080002494301389 Vminpu=0.8 Vmaxpu=1.2 model=1 kW=4.16004 kvar=0.8490757083015232 Phases=2

New Load.load_p1ulv51937 conn=wye bus1=p1ulv51937.1.2 kV=0.2080002494301389 Vminpu=0.8 Vmaxpu=1.2 model=1 kW=1.61002 kvar=0.3302830609165535 Phases=2

New Load.load_p1ulv51980 conn=wye bus1=p1ulv51980.1.2 kV=0.2080002494301389 Vminpu=0.8 Vmaxpu=1.2 model=1 kW=3.22003 kvar=0.6504775958854341 Phases=2

New Load.load_p1ulv52047 conn=wye bus1=p1ulv52047.1.2.3 kV=0.48 Vminpu=0.8 Vmaxpu=1.2 model=1 kW=48.3005 kvar=9.807834837952724 Phases=3

New Load.load_p1ulv52180 conn=wye bus1=p1ulv52180.1.2.3 kV=0.48 Vminpu=0.8 Vmaxpu=1.2 model=1 kW=125.971 kvar=25.57950253872615 Phases=3

New Load.load_p1ulv52298 conn=wye bus1=p1ulv52298.1.2.3 kV=0.48 Vminpu=0.8 Vmaxpu=1.2 model=1 kW=30.720300000000005 kvar=6.238022972274802 Phases=3

New Load.load_p1ulv52314 conn=wye bus1=p1ulv52314.1.2 kV=0.2080002494301389 Vminpu=0.8 Vmaxpu=1.2 model=1 kW=3.25003 kvar=0.659946738820333 Phases=2

New Load.load_p1ulv52358 conn=wye bus1=p1ulv52358.1.2 kV=0.2080002494301389 Vminpu=0.8 Vmaxpu=1.2 model=1 kW=7.6700800000000005 kvar=1.5614849134900406 Phases=2

New Load.load_p1ulv52422 conn=wye bus1=p1ulv52422.1.2 kV=0.2080002494301389 Vminpu=0.8 Vmaxpu=1.2 model=1 kW=3.85004 kvar=0.7797671809452545 Phases=2

New Load.load_p1ulv52542 conn=wye bus1=p1ulv52542.1.2 kV=0.2080002494301389 Vminpu=0.8 Vmaxpu=1.2 model=1 kW=4.62005 kvar=0.940555818788026 Phases=2

New Load.load_p1ulv52589 conn=wye bus1=p1ulv52589.1.2.3 kV=0.48 Vminpu=0.8 Vmaxpu=1.2 model=1 kW=31.4003 kvar=6.376102861505924 Phases=3

New Load.load_p1ulv52608 conn=wye bus1=p1ulv52608.1.2 kV=0.2080002494301389 Vminpu=0.8 Vmaxpu=1.2 model=1 kW=4.28004 kvar=0.8690991898599637 Phases=2

New Load.load_p1ulv52652 conn=wye bus1=p1ulv52652.1.2.3 kV=0.48 Vminpu=0.8 Vmaxpu=1.2 model=1 kW=36.2904 kvar=7.369080017872269 Phases=3

New Load.load_p1ulv52713 conn=wye bus1=p1ulv52713.1.2 kV=0.2080002494301389 Vminpu=0.8 Vmaxpu=1.2 model=1 kW=4.06004 kvar=0.8201678426594468 Phases=2

New Load.load_p1ulv53002 conn=wye bus1=p1ulv53002.1.2.3 kV=0.48 Vminpu=0.8 Vmaxpu=1.2 model=1 kW=34.2203 kvar=6.948728284493818 Phases=3

New Load.load_p1ulv53062 conn=wye bus1=p1ulv53062.1.2 kV=0.2080002494301389 Vminpu=0.8 Vmaxpu=1.2 model=1 kW=1.38001 kvar=0.28022298226153225 Phases=2

New Load.load_p1ulv53086 conn=wye bus1=p1ulv53086.1.2 kV=0.2080002494301389 Vminpu=0.8 Vmaxpu=1.2 model=1 kW=4.23004 kvar=0.8589462568282636 Phases=2

New Load.load_p1ulv53124 conn=wye bus1=p1ulv53124.1.2 kV=0.2080002494301389 Vminpu=0.8 Vmaxpu=1.2 model=1 kW=4.14004 kvar=1.3592956687066866 Phases=2

New Load.load_p1ulv53252 conn=wye bus1=p1ulv53252.1.2.3 kV=0.48 Vminpu=0.8 Vmaxpu=1.2 model=1 kW=75.0608 kvar=15.241745514116868 Phases=3

New Load.load_p1ulv53269 conn=wye bus1=p1ulv53269.1.2 kV=0.2080002494301389 Vminpu=0.8 Vmaxpu=1.2 model=1 kW=4.69005 kvar=0.9498984600139976 Phases=2

New Load.load_p1ulv53298 conn=wye bus1=p1ulv53298.1.2 kV=0.2080002494301389 Vminpu=0.8 Vmaxpu=1.2 model=1 kW=11.4001 kvar=2.3208472613424904 Phases=2

New Load.load_p1ulv53314 conn=wye bus1=p1ulv53314.1.2 kV=0.2080002494301389 Vminpu=0.8 Vmaxpu=1.2 model=1 kW=3.49003 kvar=0.7105048699136965 Phases=2

New Load.load_p1ulv53362 conn=wye bus1=p1ulv53362.1.2 kV=0.2080002494301389 Vminpu=0.8 Vmaxpu=1.2 model=1 kW=6.140060000000001 kvar=1.2500014416960006 Phases=2

New Load.load_p1ulv53426 conn=wye bus1=p1ulv53426.1.2 kV=0.2080002494301389 Vminpu=0.8 Vmaxpu=1.2 model=1 kW=4.14004 kvar=1.3592956687066866 Phases=2

New Load.load_p1ulv53660 conn=wye bus1=p1ulv53660.1.2 kV=0.2080002494301389 Vminpu=0.8 Vmaxpu=1.2 model=1 kW=2.52003 kvar=0.510393837206229 Phases=2

New Load.load_p1ulv53676 conn=wye bus1=p1ulv53676.1.2 kV=0.2080002494301389 Vminpu=0.8 Vmaxpu=1.2 model=1 kW=3.61004 kvar=0.7292634355115489 Phases=2

New Load.load_p1ulv53714 conn=wye bus1=p1ulv53714.1.2 kV=0.2080002494301389 Vminpu=0.8 Vmaxpu=1.2 model=1 kW=3.7100400000000002 kvar=0.7494644148777485 Phases=2

New Load.load_p1ulv53759 conn=wye bus1=p1ulv53759.1.2 kV=0.2080002494301389 Vminpu=0.8 Vmaxpu=1.2 model=1 kW=7.44007 kvar=1.5107706492232365 Phases=2

New Load.load_p1ulv54025 conn=wye bus1=p1ulv54025.1.2 kV=0.2080002494301389 Vminpu=0.8 Vmaxpu=1.2 model=1 kW=4.01004 kvar=0.810067352976347 Phases=2

New Load.load_p1ulv54073 conn=wye bus1=p1ulv54073.1.2 kV=0.2080002494301389 Vminpu=0.8 Vmaxpu=1.2 model=1 kW=4.13004 kvar=0.840798942398307 Phases=2

New Load.load_p1ulv54136 conn=wye bus1=p1ulv54136.1.2 kV=0.2080002494301389 Vminpu=0.8 Vmaxpu=1.2 model=1 kW=4.670050000000001 kvar=1.52999392305181 Phases=2

New Load.load_p1ulv54329 conn=wye bus1=p1ulv54329.1.2 kV=0.2080002494301389 Vminpu=0.8 Vmaxpu=1.2 model=1 kW=3.70004 kvar=0.7493869570665965 Phases=2

New Load.load_p1ulv54374 conn=wye bus1=p1ulv54374.1.2.3 kV=0.48 Vminpu=0.8 Vmaxpu=1.2 model=1 kW=44.4404 kvar=9.024008102039403 Phases=3

New Load.load_p1ulv54391 conn=wye bus1=p1ulv54391.1.2 kV=0.2080002494301389 Vminpu=0.8 Vmaxpu=1.2 model=1 kW=4.06004 kvar=0.8201678426594468 Phases=2

New Load.load_p1ulv54439 conn=wye bus1=p1ulv54439.1.2 kV=0.2080002494301389 Vminpu=0.8 Vmaxpu=1.2 model=1 kW=7.99008 kvar=1.6182694613892477 Phases=2

New Load.load_p1ulv54684 conn=wye bus1=p1ulv54684.1.2.3 kV=0.48 Vminpu=0.8 Vmaxpu=1.2 model=1 kW=38.5604 kvar=7.8300231775114595 Phases=3

New Load.load_p1ulv54701 conn=wye bus1=p1ulv54701.1.2 kV=0.2080002494301389 Vminpu=0.8 Vmaxpu=1.2 model=1 kW=4.200040000000001 kvar=0.8506543699954566 Phases=2

New Load.load_p1ulv54747 conn=wye bus1=p1ulv54747.1.2.3 kV=0.48 Vminpu=0.8 Vmaxpu=1.2 model=1 kW=32.7903 kvar=6.658354399787191 Phases=3

...